<option value="0" {$sindicato[0]} >0 - Nenhum</option>
<option value="1" {$sindicato[1]} >1 - SIND. EMPREG ESC. EM EMPR DE TRAN. ROD DE C. SECAS E MOLH. DE SP E ITA</option>
<option value="2" {$sindicato[2]} >2 - SIND. TRAB. EMPR DE TRAN. ROD. DE C. SECAS E MOLH. DE SP E ITAPECIRICA</option>
<option value="3" {$sindicato[3]} >3 - SIND. TRAB. EMPR DE TELEC E OPERAD DE MESA TELEFON NO ESTADO DE SP</option>
<option value="5" {$sindicato[5]} >5 - SIND. DOS TECNICOS DE SEG. DO TRABALHO NO ESTADO DE SAO PAULO</option>
<option value="6" {$sindicato[6]} >6 - SIND. DOS TRABALHADORES EM TRANSP ROD DE CARGAS NAS REGIOES DO REC</option>
<option value="7" {$sindicato[7]} >7 - SIND. DOS TRAB. ROD. DO ESTADO DO ESPIRITO SANTO_RODOTRANS</option>
<option value="8" {$sindicato[8]} >8 - SIND. DOS TRABALHADORES EM TRANSPORTE RODOVIARIO DE JUNDIAI E REGIAO</option>
<option value="9" {$sindicato[9]} >9 - SIND. DOS TRAB.E EMP NAS EMPR TRANSP ROD DE CARGAS DE ITABUNA</option>
<option value="10" {$sindicato[10]} >10 - SIND. DOS TRABALHADORES EM TRANSPORTES RODOVIARIOS DE BETIM</option>
<option value="11" {$sindicato[11]} >11 - SIND. DOS TRAB. EM TRANSP. RODOVIARIOS DE CORONEL FABRICIANO</option>
<option value="12" {$sindicato[12]} >12 - SIND. DOS TRAB. EM TRANSPORTES RODOVIARIOS NO ESTADO DE GOIAS</option>
<option value="13" {$sindicato[13]} >13 - SINTRACARP - PR</option>
<option value="14" {$sindicato[14]} >14 - SITRAROIT -  SC</option>
<option value="15" {$sindicato[15]} >15 - SITTRATER - DF</option>
<option value="16" {$sindicato[16]} >16 - SINDNORTE - ES</option>
<option value="17" {$sindicato[17]} >17 - SIND. DOS TRAB. EM TRANSP. RODOVIARIOS DE CAMPINAS E REGIAO</option>
<option value="18" {$sindicato[18]} >18 - SIND. DOS TRAB EM TRANSP ROD COLET. CARGA E DERIV. DE PETR DE IMPERATR</option>
<option value="19" {$sindicato[19]} >19 - SIND. DOS CONDUTORES DE VEIC. ROD. E ANEXOS DE NOVA FRIBURGO</option>
<option value="20" {$sindicato[20]} >20 - FEDER. INTERESTADUAL DOS TRAB. EM TRANSP. ROD. DO NORDESTE</option>
<option value="21" {$sindicato[21]} >21 - SIND. DOS CONDUTORES DE VEICULOS ROD. DE TELEMACO BORBA</option>
<option value="22" {$sindicato[22]} >22 - SIND. DOS TRAB EMPR NAS EMPRES TRANSP. ROD. C. FEIRA DE SANT. E REG.</option>
<option value="23" {$sindicato[23]} >23 - SIND DOS MOT TRAT E OPER DE MAQ AGRICOLAS DE USINAS DE AÇUCAR, DESTILA</option>
<option value="24" {$sindicato[24]} >24 - SIND DOS TRAB EMPR TRANSP ROD DE PASS INTEREST INTERM URB LOC E CARGAS</option>
<option value="25" {$sindicato[25]} >25 - SIND DOS TRAB EM TRANSP INTERMUNICIPAIS DE CARGAS DE SALVADOR</option>
<option value="26" {$sindicato[26]} >26 - SIND TRAB. EM TRANSP. RODOVIARIOS DE URUGUAIANA</option>
<option value="27" {$sindicato[27]} >27 - SIND DOS CONDUTORES DE VEICULOS ROD. DE MOCOCA E REGIAO</option>
<option value="28" {$sindicato[28]} >28 - SIND. DOS TRABALHADORES RODOVIARIOS DE ITUIUTABA</option>
<option value="29" {$sindicato[29]} >29 - SIND DOS EMPREG EM ESCR DE EMPR DE TRANSP ROD E LOG NO SETOR ADM DE CA</option>
<option value="30" {$sindicato[30]} >30 - SIND DOS MOTORISTAS E TRAB RAMO TRANSP DE EMPR CARGAS SECAS E MOLH DIF</option>
<option value="31" {$sindicato[31]} >31 - SINDICATO DOS EMPREGADOS RURAIS DE VARGEM GRANDE DO SUL</option>
<option value="32" {$sindicato[32]} >32 - SIND DOS EMPR. EM ESCR. DE EMPR DE TRANSP ROD DE CARGAS SECAS E MOLHAD</option>
<option value="33" {$sindicato[33]} >33 - SIND. DOS CONDUTORES DE VEICULOS RODOVIARIO DE ITU E REGIAO</option>
<option value="34" {$sindicato[34]} >34 - SIND. TRAB. EMP. TRANSP. ROD. E ANEXOS ABCDMRP E RIO GRANDE SERRA</option>
<option value="35" {$sindicato[35]} >35 - SIND. DOS TRAB. EM TRANSPORTE RODOVIARIO DE TRES LAGOAS</option>
<option value="36" {$sindicato[36]} >36 - SIND TRAB. EM TRANSP. RODOVIARIOS DE GUAÍBA RS</option>
<option value="37" {$sindicato[37]} >37 - SIND DOS TRAB DE TRANSP TERRESTRES DE PRESIDENTE PRUDENTE E REGIÃO</option>
<option value="38" {$sindicato[38]} >38 - SIND DOS TRAB EM TRANSP ROD DE CARGAS E PASS DE MAGE</option>
<option value="39" {$sindicato[39]} >39 - SIND. DOS TRAB. EM TRANSP. ROD. RIO VERDE  GOIAS - GO</option>
<option value="40" {$sindicato[40]} >40 - SIND. DOS TRAB EM TRANSP ROD DE TEOFILO OTONI</option>
<option value="41" {$sindicato[41]} >41 - SIND. DOS TRAB EM TRANSP ROD ANEXO DE JALES E REG</option>
<option value="42" {$sindicato[42]} >42 - SINDICATO DOS TRABALHADORES EM TRANSPORTES RODOVIARIOS DE SANTOS</option>
<option value="43" {$sindicato[43]} >43 - SINDICATO EMPREGADOS EM ESCRITORIO ADM EMP ROD CARGAS KM ABCDMRPRGS</option>
<option value="44" {$sindicato[44]} >44 - SIND DOS EMPREG DE AGENTES AUTON DO COM E EMPR ASSES PER INF NO EST SP</option>
<option value="45" {$sindicato[45]} >45 - SIND DOS COND DE VEIC E TRAB EM TRANSP ROD CARGAS DE JOINVILLE</option>
<option value="46" {$sindicato[46]} >46 - SIND TRAB TRANSP RODOV E ANEXOS DO VALE DO PARAIBA</option>
<option value="47" {$sindicato[47]} >47 - SIND.DOS TRAB. EM MOVIMENTAÇÃO DE MERCAD EM GERAL DE PAULINIA E REGIAO</option>
<option value="48" {$sindicato[48]} >48 - Sind dos Condutores e Motoristas  Traba em Transp Rodov de Telemaco Bo</option>
<option value="49" {$sindicato[49]} >49 - Sind dos Trabalhadores em Transp Rodov de São Leopoldo</option>
<option value="51" {$sindicato[51]} >51 - Sind dos Trabalhadores em Transp Rodov Jaboticabal</option>
<option value="52" {$sindicato[52]} >52 - Sind dos Traba em Transp Rod de Bauru e Agudos</option>
<option value="53" {$sindicato[53]} >53 - Sind Trab Em Transp Rodov de S Mel Btu Pdnho Avre Itga</option>
<option value="54" {$sindicato[54]} >54 - SIND. DOS TRAB. EM TRANSP. ROD. DO NORTE ESTADO DO ESP SANTO</option>
<option value="55" {$sindicato[55]} >55 - SIND D TRAB EM TRANSP ROD DE CARGAS DO ESTADO DA BAHIA</option>
